 /*--------------------------------*- C++ -*----------------------------------*\
   =========                 |
   \\      /  F ield         | OpenFOAM: The Open Source CFD Toolbox
    \\    /   O peration     | Website:  https://openfoam.org
     \\  /    A nd           | Version:  8
      \\/     M anipulation  |
 \*---------------------------------------------------------------------------*/
 FoamFile
 {
     version     2.0;
     format      ascii;
     class       dictionary;
     object      controlDict;
 }
 // * * * * * * * * * * * * * * * * * * * * * * * * * * * * * * * * * * * * * //
 application     pimpleFoam;
 startFrom       startTime;
 startTime       0;
 stopAt          endTime;
 endTime         0.4004;
 deltaT          0.00004;
 writeControl    timeStep;
 writeInterval   500;
 purgeWrite      0;
 writeFormat     ascii;
 writePrecision  15;
 writeCompression off;
 timeFormat      general;
 timePrecision   6;
 runTimeModifiable true;
  
 // ************************************************************************* //
