 /*--------------------------------*- C++ -*----------------------------------*\
   =========                 |
   \\      /  F ield         | OpenFOAM: The Open Source CFD Toolbox
    \\    /   O peration     | Website:  https://openfoam.org
     \\  /    A nd           | Version:  v2312
      \\/     M anipulation  |
 \*---------------------------------------------------------------------------*/
 FoamFile
 {
     version     2.0;
     format      ascii;
     class       dictionary;
     object      controlDict;
 }
 // * * * * * * * * * * * * * * * * * * * * * * * * * * * * * * * * * * * * * //
 application     simpleFoam;
 startFrom       startTime;
 startTime       0;
 stopAt          endTime;
 endTime         20000;
 deltaT          1;
 writeControl    timeStep;
 writeInterval   5000;
 purgeWrite      0;
 writeFormat     ascii;
 writePrecision  15;
 writeCompression off;
 timeFormat      general;
 timePrecision   6;
 runTimeModifiable true;
 functions
 {
    //  #include "FOcomponents"
    //  probe0
    //  {
    //      type            probes;
    //      libs            ("libsampling.so");
    //      writeControl    timeStep;
    //      writeInterval   1;
    //      timeStart      0;
    //      timeEnd        1000000;
    //      fields
    //      (
    //          p  U 
    //       );
    //      probeLocations
    //      (
    //          ( -0.00001 0.0 0.0) 
    //       );
    //  }

    ReynoldsStress
    {
        type            turbulenceFields;
        libs            (fieldFunctionObjects);
        fields          (R);
        
        executeControl  writeTime;
        writeControl    writeTime;
    }
 }
