 /*--------------------------------*- C++ -*----------------------------------*\
   =========                 |
   \\      /  F ield         | OpenFOAM: The Open Source CFD Toolbox
    \\    /   O peration     | Website:  https://openfoam.org
     \\  /    A nd           | Version:  v2312
      \\/     M anipulation  |
 \*---------------------------------------------------------------------------*/
 FoamFile
 {
     version     2.0;
     format      ascii;
     class       dictionary;
     object      controlDict;
 }
 // * * * * * * * * * * * * * * * * * * * * * * * * * * * * * * * * * * * * * //
 application     pimpleFoam;
 startFrom       startTime;
 startTime       0;
 stopAt          endTime;
 endTime         0.00012;
 deltaT          1e-4;
 writeControl    timeStep;
 writeInterval   1 ;
 purgeWrite      0;
 writeFormat     ascii;
 writePrecision  14;
 writeCompression off;
 timeFormat      general;
 timePrecision   8;
 runTimeModifiable false;